/*---------------------------------------------------------------------------*\
  =========                 |
  \\      /  F ield         | OpenFOAM: The Open Source CFD Toolbox
   \\    /   O peration     | Website:  https://openfoam.org
    \\  /    A nd           | Version:  8
     \\/     M anipulation  |
\*---------------------------------------------------------------------------*/
Build  : 8-057cd6c43423
Exec   : setFields
Date   : Dec 12 2021
Time   : 23:36:13
Host   : "liuning-PC"
PID    : 13598
I/O    : uncollated
Case   : /home/liuning/SRTP/floatingBreakwater
nProcs : 1
sigFpe : Enabling floating point exception trapping (FOAM_SIGFPE).
fileModificationChecking : Monitoring run-time modified files using timeStampMaster (fileModificationSkew 10)
allowSystemOperations : Allowing user-supplied system call operations

// * * * * * * * * * * * * * * * * * * * * * * * * * * * * * * * * * * * * * //
Create time

Create mesh for time = 0

Reading setFieldsDict

Setting field default values
    Setting internal values of volScalarField alpha.water

Setting field region values
    Adding cells with center within boxes 1((-100 -100 -100) (100 100 0))
    Setting internal values of volScalarField alpha.water
    Adding cells with center within boxes 1((1.5 1.5 -100) (100 100 0.15))
    Setting internal values of volScalarField alpha.water

End

